Version 4
SHEET 1 880 680
WIRE -3120 -2544 -3248 -2544
WIRE -2816 -2544 -3056 -2544
WIRE -2976 -2464 -3008 -2464
WIRE -3408 -2416 -3600 -2416
WIRE -3248 -2416 -3248 -2544
WIRE -3248 -2416 -3328 -2416
WIRE -3168 -2416 -3248 -2416
WIRE -3056 -2416 -3088 -2416
WIRE -3008 -2416 -3008 -2464
WIRE -3008 -2416 -3056 -2416
WIRE -1536 -2416 -1552 -2416
WIRE -2976 -2400 -2992 -2400
WIRE -2832 -2400 -2832 -2432
WIRE -2816 -2400 -2816 -2544
WIRE -2816 -2400 -2832 -2400
WIRE -2720 -2400 -2816 -2400
WIRE -2352 -2400 -2416 -2400
WIRE -2272 -2400 -2352 -2400
WIRE -2192 -2400 -2208 -2400
WIRE -1936 -2400 -2192 -2400
WIRE -1552 -2400 -1552 -2416
WIRE -1552 -2400 -1616 -2400
WIRE -960 -2400 -976 -2400
WIRE -1376 -2384 -1392 -2384
WIRE -1264 -2384 -1376 -2384
WIRE -976 -2384 -976 -2400
WIRE -976 -2384 -1040 -2384
WIRE -800 -2368 -816 -2368
WIRE -688 -2368 -800 -2368
WIRE -3056 -2352 -3056 -2416
WIRE -1536 -2352 -1584 -2352
WIRE -960 -2336 -1008 -2336
WIRE -2992 -2288 -2992 -2400
WIRE -2912 -2288 -2992 -2288
WIRE -2816 -2288 -2816 -2400
WIRE -2816 -2288 -2832 -2288
WIRE -2352 -2288 -2352 -2400
WIRE -2272 -2288 -2352 -2288
WIRE -2192 -2288 -2192 -2400
WIRE -1584 -2272 -1584 -2352
WIRE -1584 -2272 -1600 -2272
WIRE -1520 -2272 -1584 -2272
WIRE -1376 -2272 -1376 -2384
WIRE -1376 -2272 -1440 -2272
WIRE -2992 -2256 -2992 -2288
WIRE -1008 -2256 -1008 -2336
WIRE -1008 -2256 -1024 -2256
WIRE -944 -2256 -1008 -2256
WIRE -800 -2256 -800 -2368
WIRE -800 -2256 -864 -2256
WIRE -3952 -2240 -4016 -2240
WIRE -3056 -2240 -3056 -2288
WIRE -2192 -2240 -2192 -2288
WIRE -2992 -2144 -2992 -2176
WIRE -2192 -2112 -2192 -2160
WIRE -3056 -2080 -3152 -2080
WIRE -2816 -2080 -2912 -2080
WIRE -3056 -2064 -3056 -2080
WIRE -2912 -2064 -2912 -2080
WIRE -3056 -1936 -3056 -1984
WIRE -3008 -1936 -3056 -1936
WIRE -2912 -1936 -2912 -1984
WIRE -2912 -1936 -3008 -1936
WIRE -3008 -1904 -3008 -1936
FLAG -3008 -1904 0
FLAG -3152 -2080 Vp
FLAG -2816 -2080 Vn
FLAG -3056 -2240 0
FLAG -2992 -2144 0
FLAG -2192 -2112 0
FLAG -1936 -2400 VPoleZero
FLAG -1504 -2464 Vn
FLAG -1504 -2304 Vp
FLAG -1680 -2272 0
FLAG -2720 -2400 VSall-key
FLAG -2416 -2400 VSall-Key
FLAG -1264 -2384 Vamp1
FLAG -928 -2448 Vn
FLAG -928 -2288 Vp
FLAG -1104 -2256 0
FLAG -1040 -2384 Vamp1
FLAG -1616 -2400 VPoleZero
FLAG -688 -2368 Vfinal
FLAG -4096 -2240 0
FLAG -3952 -2240 VSensl
FLAG -3600 -2416 VSensl
FLAG -2944 -2512 Vn
FLAG -2944 -2352 Vp
SYMBOL voltage -3056 -2080 R0
SYMATTR InstName Psup3
SYMATTR Value 5
SYMBOL voltage -2912 -1968 R180
WINDOW 0 24 96 Left 2
WINDOW 3 24 16 Left 2
SYMATTR InstName V3
SYMATTR Value 5
SYMBOL res -3072 -2432 R90
WINDOW 0 0 56 VBottom 2
WINDOW 3 32 56 VTop 2
SYMATTR InstName R17
SYMATTR Value 1.2k
SYMBOL cap -3072 -2352 R0
SYMATTR InstName C5
SYMATTR Value 11.58p
SYMBOL res -3008 -2272 R0
SYMATTR InstName R18
SYMATTR Value 600
SYMBOL res -3312 -2432 R90
WINDOW 0 0 56 VBottom 2
WINDOW 3 32 56 VTop 2
SYMATTR InstName R19
SYMATTR Value 500
SYMBOL cap -3056 -2560 R90
WINDOW 0 0 32 VBottom 2
WINDOW 3 32 32 VTop 2
SYMATTR InstName C6
SYMATTR Value 13p
SYMBOL cap -2208 -2416 R90
WINDOW 0 0 32 VBottom 2
WINDOW 3 32 32 VTop 2
SYMATTR InstName Cin3
SYMATTR Value 220p
SYMBOL res -2176 -2304 R90
WINDOW 0 0 56 VBottom 2
WINDOW 3 32 56 VTop 2
SYMATTR InstName RP3
SYMATTR Value 2k
SYMBOL res -2208 -2256 R0
SYMATTR InstName Rin3
SYMATTR Value 80
SYMBOL res -1584 -2288 R90
WINDOW 0 0 56 VBottom 2
WINDOW 3 32 56 VTop 2
SYMATTR InstName R21
SYMATTR Value 100
SYMBOL res -1424 -2288 R90
WINDOW 0 0 56 VBottom 2
WINDOW 3 32 56 VTop 2
SYMATTR InstName R22
SYMATTR Value 2k
SYMBOL Opamps\\LT6200-10 -1504 -2384 M180
SYMATTR InstName U8
SYMBOL res -1008 -2272 R90
WINDOW 0 0 56 VBottom 2
WINDOW 3 32 56 VTop 2
SYMATTR InstName R23
SYMATTR Value 50
SYMBOL res -848 -2272 R90
WINDOW 0 0 56 VBottom 2
WINDOW 3 32 56 VTop 2
SYMATTR InstName R24
SYMATTR Value 50
SYMBOL Opamps\\LT6200-10 -928 -2368 M180
SYMATTR InstName U9
SYMBOL voltage -4000 -2240 R90
WINDOW 0 -32 56 VBottom 2
WINDOW 3 32 56 VTop 2
WINDOW 123 60 56 VTop 2
WINDOW 39 -4 56 VBottom 2
SYMATTR InstName VSipm1
SYMATTR Value EXP(0 60m 100n 10n 0 472n)
SYMATTR Value2 AC 1
SYMATTR SpiceLine Rser=100
SYMBOL Opamps\\LT6200-10 -2944 -2432 M180
SYMATTR InstName U1
SYMBOL res -2816 -2304 R90
WINDOW 0 0 56 VBottom 2
WINDOW 3 32 56 VTop 2
SYMATTR InstName R1
SYMATTR Value 1k
TEXT -3472 -2304 Left 2 !;ac oct 100 10 100G
TEXT -2720 -1984 Left 2 ;.step param  X 3k 6k .5k
TEXT -4240 -1880 Left 2 !.tran 1000ns
TEXT -2656 -2512 Left 2 !;noise V(Vamp1) VSipm1 oct 100 10 100G
