Version 4
SHEET 1 880 760
WIRE -864 -96 -880 -96
WIRE -880 -80 -880 -96
WIRE -880 -80 -944 -80
WIRE -704 -64 -720 -64
WIRE -592 -64 -704 -64
WIRE -64 -64 -128 -64
WIRE 16 -64 -64 -64
WIRE 96 -64 80 -64
WIRE 352 -64 96 -64
WIRE -864 -32 -912 -32
WIRE -1008 48 -1136 48
WIRE -912 48 -912 -32
WIRE -912 48 -928 48
WIRE -848 48 -912 48
WIRE -704 48 -704 -64
WIRE -704 48 -768 48
WIRE -64 48 -64 -64
WIRE 16 48 -64 48
WIRE 96 48 96 -64
WIRE 96 96 96 48
WIRE -912 176 -912 48
WIRE -832 176 -912 176
WIRE -704 176 -704 48
WIRE -704 176 -768 176
WIRE 96 224 96 176
WIRE -1440 288 -1504 288
WIRE -608 544 -704 544
WIRE -368 544 -464 544
WIRE -608 560 -608 544
WIRE -464 560 -464 544
WIRE -608 688 -608 640
WIRE -560 688 -608 688
WIRE -464 688 -464 640
WIRE -464 688 -560 688
WIRE -560 720 -560 688
FLAG 96 224 0
FLAG 352 -64 VPoleZero
FLAG -560 720 0
FLAG -704 544 Vp
FLAG -368 544 Vn
FLAG -832 -144 Vn
FLAG -832 16 Vp
FLAG -944 -80 0
FLAG -592 -64 ActiveLowPass
FLAG -128 -64 ActiveLowPass
FLAG -1584 288 0
FLAG -1440 288 VSensl
FLAG -1136 48 VSensl
SYMBOL cap 80 -80 R90
WINDOW 0 0 32 VBottom 2
WINDOW 3 32 32 VTop 2
SYMATTR InstName Cin1
SYMATTR Value 220p
SYMBOL res 112 32 R90
WINDOW 0 0 56 VBottom 2
WINDOW 3 32 56 VTop 2
SYMATTR InstName RP1
SYMATTR Value 2k
SYMBOL res 80 80 R0
SYMATTR InstName Rin1
SYMATTR Value 80
SYMBOL voltage -608 544 R0
SYMATTR InstName Psup1
SYMATTR Value 5
SYMBOL voltage -464 656 R180
WINDOW 0 24 96 Left 2
WINDOW 3 24 16 Left 2
SYMATTR InstName V1
SYMATTR Value 5
SYMBOL res -912 32 R90
WINDOW 0 0 56 VBottom 2
WINDOW 3 32 56 VTop 2
SYMATTR InstName R1
SYMATTR Value 100
SYMBOL res -752 32 R90
WINDOW 0 0 56 VBottom 2
WINDOW 3 32 56 VTop 2
SYMATTR InstName R2
SYMATTR Value 500
SYMBOL Opamps\\LT6200-10 -832 -64 M180
SYMATTR InstName U1
SYMBOL cap -768 160 R90
WINDOW 0 0 32 VBottom 2
WINDOW 3 32 32 VTop 2
SYMATTR InstName C1
SYMATTR Value 9.58p
SYMBOL voltage -1488 288 R90
WINDOW 0 -32 56 VBottom 2
WINDOW 3 32 56 VTop 2
WINDOW 123 60 56 VTop 2
WINDOW 39 -4 56 VBottom 2
SYMATTR InstName VSipm1
SYMATTR Value EXP(0 60m 100n 10n 0 472n)
SYMATTR Value2 AC 1
SYMATTR SpiceLine Rser=100
TEXT -1726 744 Left 2 !.tran 300n
